resultados/Relatorios/ieee118/ieee118-report.txt
February 27, 2024


relatorio do sistema ieee118

solucao do fluxo de potencia via metodo do fluxo de potencia direto (Canizares, 1993)

opcoes de controle ativadas: Nenhum controle ativo!

opcoes de relatorio ativadas: RBAR 



vv relatorio de convergencia vv

 * * * * SISTEMA CONVERGENTE * * * * 

Ponto de Maximo Carregamento: 0.923202
Autovalores: [ 1.47428375e-01  1.45741974e-01  1.44356748e-01  1.34528114e-01
  1.33751010e-01  1.40099780e-01  1.41292574e-01  1.32775552e-01
  1.30100802e-01  1.27364957e-01  1.41366587e-01  1.42523170e-01
  1.44019335e-01  1.42365598e-01  1.37077743e-01  1.41104142e-01
  1.30832809e-01  1.35355966e-01  1.35996929e-01  1.33549537e-01
  1.28750682e-01  1.20465239e-01  1.06094726e-01  8.92256130e-02
  1.11195350e-01  1.13639397e-01  1.28482254e-01  1.32145936e-01
  1.34444331e-01  1.28411136e-01  1.33994975e-01  1.28000312e-01
  1.32842992e-01  1.22340773e-01  1.23471979e-01  1.23439228e-01
  1.21573231e-01  1.19007111e-01  1.21327482e-01  1.18536687e-01
  1.16702495e-01  1.04124055e-01  1.19310883e-01  1.03389757e-01
  9.49929386e-02  8.76659982e-02  8.50715763e-02  7.62333665e-02
  7.20431243e-02  7.31052669e-02  7.48326048e-02  7.57805722e-02
  7.44758180e-02  7.13658239e-02  7.08427339e-02  7.11720962e-02
  7.27212175e-02  7.38415617e-02  5.59650385e-02  5.06338604e-02
  4.97277092e-02  5.08425372e-02  5.19857122e-02  4.87396414e-02
  4.22307047e-02  5.02199115e-02  5.11452498e-02  3.33942197e-02
  3.95651453e-02  4.29948039e-02  6.45853927e-02  4.28726583e-02
  3.75200224e-02  3.56681251e-02  3.80717042e-02  3.47571937e-02
  3.53289612e-02  3.56367985e-02  3.56478313e-02  3.46360549e-02
  4.08902254e-02  4.20258457e-02  4.34527854e-02  4.34703304e-02
  4.47264671e-02  4.46685917e-02  4.33487295e-02  4.21216888e-02
  4.53972615e-02  4.48127496e-02  4.36926522e-02  4.40399998e-02
  4.38292460e-02  4.33391100e-02  4.10791198e-02  3.84296014e-02
  3.98530373e-02  4.25839819e-02  4.48152518e-02  4.50198844e-02
  4.41977982e-02  4.86142652e-02  5.06650303e-02  5.17078566e-02
  5.19815310e-02  5.43204645e-02  5.29164969e-02  5.33566706e-02
  5.40170586e-02  5.31204533e-02  5.71310542e-02  1.30363651e-01
  1.29367534e-01  1.29502074e-01  3.32106014e-02  1.46557289e-01
  3.77561831e-02  6.56303677e-04  9.14478799e-04  2.64214772e-04
  5.77055769e-05 -4.54379941e-05  1.00069148e-03  2.52283179e-03
  7.72798739e-05  2.01895814e-03  2.28726213e-03  4.74453167e-03
  7.69077394e-03  8.45099320e-03  3.86865584e-03  7.24983256e-04
  4.21848524e-04  5.85259298e-03  4.29440401e-03  8.46359218e-04
  4.49361370e-03  1.99739070e-02  2.28624239e-03  1.02110798e-03
  6.62940282e-03  1.02492802e-02  7.97945271e-03  1.22123694e-02
  4.23323319e-04  2.17549827e-04  1.23550427e-03  1.49985421e-03
  1.21467951e-03  1.48337475e-04  7.87151438e-04  1.05377851e-04
  1.03114158e-03  9.45280017e-04  1.63948370e-04  3.56986468e-03
  1.35662225e-03  5.93281676e-03  1.74741357e-04  2.52935754e-04
  2.20419893e-03  1.88569431e-03  1.54749543e-03  7.45697272e-04
  1.66573614e-04  1.75476490e-04  8.51920777e-04  1.34467402e-03
  2.22373028e-03  2.02769473e-03  1.45681655e-03  1.10265656e-03
  4.46377457e-04  1.95331126e-04  6.33031475e-04  1.18766026e-04
  1.35369248e-04  3.79947520e-04  4.07504399e-04  1.69213870e-03
  3.42113561e-03]
Iteracoes: 9

vv relatorio de barras vv area 1 vv

|          BARRA           |         TENSAO       |        GERACAO      |         CARGA       |   SHUNT  |
| NUM |     NOME     |  T  |    MOD    |    ANG   |    MW    |   MVAr   |    MW    |   MVAr   |    MVAr  |
----------------------------------------------------------------------------------------------------------
|  1  |  BARRA---1   |  1  |   0.955   | -162.23  |  0.000   |  57.401  |  98.083  |  51.926  |  0.000   |
----------------------------------------------------------------------------------------------------------
|  2  |  BARRA---2   |  0  |   0.965   | -160.59  |  0.000   |  0.000   |  38.464  |  17.309  |  0.000   |
----------------------------------------------------------------------------------------------------------
|  3  |  BARRA---3   |  0  |   0.961   | -160.27  |  0.000   |  0.000   |  75.005  |  19.232  |  0.000   |
----------------------------------------------------------------------------------------------------------
|  4  |  BARRA---4   |  1  |   0.998   | -153.02  |  -9.000  |  17.379  |  57.696  |  23.078  |  0.000   |
----------------------------------------------------------------------------------------------------------
|  5  |  BARRA---5   |  0  |   1.002   | -152.24  |  0.000   |  -0.000  |  0.000   |  0.000   | -40.139  |
----------------------------------------------------------------------------------------------------------
|  6  |  BARRA---6   |  1  |   0.990   | -157.25  |  0.000   |  56.036  | 100.006  |  42.310  |  0.000   |
----------------------------------------------------------------------------------------------------------
|  7  |  BARRA---7   |  0  |   0.989   | -157.94  |  0.000   |  0.000   |  36.541  |  3.846   |  0.000   |
----------------------------------------------------------------------------------------------------------
|  8  |  BARRA---8   |  1  |   1.015   | -143.49  | -28.000  | 242.312  |  0.000   |  0.000   |  0.000   |
----------------------------------------------------------------------------------------------------------
|  9  |  BARRA---9   |  0  |   1.043   | -136.24  |  -0.000  |  -0.000  |  0.000   |  0.000   |  0.000   |
----------------------------------------------------------------------------------------------------------
| 10  |  BARRA--10   |  1  |   1.050   | -128.66  | 450.000  | -51.042  |  0.000   |  0.000   |  0.000   |
----------------------------------------------------------------------------------------------------------

|          BARRA           |         TENSAO       |        GERACAO      |         CARGA       |   SHUNT  |
| NUM |     NOME     |  T  |    MOD    |    ANG   |    MW    |   MVAr   |    MW    |   MVAr   |    MVAr  |
----------------------------------------------------------------------------------------------------------
| 11  |  BARRA--11   |  0  |   0.977   | -157.28  |  0.000   |  0.000   | 134.624  |  44.234  |  0.000   |
----------------------------------------------------------------------------------------------------------
| 12  |  BARRA--12   |  1  |   0.990   | -158.37  |  85.000  | 215.274  |  90.390  |  19.232  |  0.000   |
----------------------------------------------------------------------------------------------------------
| 13  |  BARRA--13   |  0  |   0.946   | -157.99  |  0.000   |  0.000   |  65.389  |  30.771  |  0.000   |
----------------------------------------------------------------------------------------------------------
| 14  |  BARRA--14   |  0  |   0.980   | -157.45  |  0.000   |  0.000   |  26.925  |  1.923   |  0.000   |
----------------------------------------------------------------------------------------------------------
| 15  |  BARRA--15   |  1  |   0.970   | -151.62  |  0.000   | 143.992  | 173.088  |  57.696  |  0.000   |
----------------------------------------------------------------------------------------------------------
| 16  |  BARRA--16   |  0  |   0.966   | -156.31  |  0.000   |  0.000   |  48.080  |  19.232  |  0.000   |
----------------------------------------------------------------------------------------------------------
| 17  |  BARRA--17   |  0  |   0.981   | -146.98  |  0.000   |  0.000   |  21.155  |  5.770   |  0.000   |
----------------------------------------------------------------------------------------------------------
| 18  |  BARRA--18   |  1  |   0.973   | -150.70  |  0.000   | 103.426  | 115.392  |  65.389  |  0.000   |
----------------------------------------------------------------------------------------------------------
| 19  |  BARRA--19   |  1  |   0.962   | -150.63  |  0.000   |  68.982  |  86.544  |  48.080  |  0.000   |
----------------------------------------------------------------------------------------------------------
| 20  |  BARRA--20   |  0  |   0.914   | -147.34  |  0.000   |  0.000   |  34.618  |  5.770   |  0.000   |
----------------------------------------------------------------------------------------------------------

|          BARRA           |         TENSAO       |        GERACAO      |         CARGA       |   SHUNT  |
| NUM |     NOME     |  T  |    MOD    |    ANG   |    MW    |   MVAr   |    MW    |   MVAr   |    MVAr  |
----------------------------------------------------------------------------------------------------------
| 21  |  BARRA--21   |  0  |   0.893   | -142.74  |  0.000   |  0.000   |  26.925  |  15.386  |  0.000   |
----------------------------------------------------------------------------------------------------------
| 22  |  BARRA--22   |  0  |   0.900   | -135.73  |  0.000   |  0.000   |  19.232  |  9.616   |  0.000   |
----------------------------------------------------------------------------------------------------------
| 23  |  BARRA--23   |  0  |   0.966   | -123.17  |  0.000   |  0.000   |  13.462  |  5.770   |  0.000   |
----------------------------------------------------------------------------------------------------------
| 24  |  BARRA--24   |  1  |   0.992   | -110.58  | -13.000  | 255.155  |  0.000   |  0.000   |  0.000   |
----------------------------------------------------------------------------------------------------------
| 25  |  BARRA--25   |  1  |   1.050   | -123.32  | 220.000  | 120.901  |  0.000   |  0.000   |  0.000   |
----------------------------------------------------------------------------------------------------------
| 26  |  BARRA--26   |  1  |   1.015   | -122.83  | 314.000  |  86.835  |  0.000   |  0.000   |  0.000   |
----------------------------------------------------------------------------------------------------------
| 27  |  BARRA--27   |  1  |   0.968   | -143.81  |  -9.000  |  69.717  | 119.239  |  25.002  |  0.000   |
----------------------------------------------------------------------------------------------------------
| 28  |  BARRA--28   |  0  |   0.954   | -147.05  |  0.000   |  0.000   |  32.694  |  13.462  |  0.000   |
----------------------------------------------------------------------------------------------------------
| 29  |  BARRA--29   |  0  |   0.959   | -148.90  |  0.000   |  0.000   |  46.157  |  7.693   |  0.000   |
----------------------------------------------------------------------------------------------------------
| 30  |  BARRA--30   |  0  |   0.927   | -137.57  |  0.000   |  0.000   |  0.000   |  0.000   |  0.000   |
----------------------------------------------------------------------------------------------------------

|          BARRA           |         TENSAO       |        GERACAO      |         CARGA       |   SHUNT  |
| NUM |     NOME     |  T  |    MOD    |    ANG   |    MW    |   MVAr   |    MW    |   MVAr   |    MVAr  |
----------------------------------------------------------------------------------------------------------
| 31  |  BARRA--31   |  1  |   0.967   | -148.66  |  7.000   |  95.084  |  82.698  |  51.926  |  0.000   |
----------------------------------------------------------------------------------------------------------
| 32  |  BARRA--32   |  1  |   0.963   | -143.54  |  0.000   | 105.474  | 113.469  |  44.234  |  0.000   |
----------------------------------------------------------------------------------------------------------
| 33  |  BARRA--33   |  0  |   0.937   | -145.64  |  0.000   |  0.000   |  44.234  |  17.309  |  0.000   |
----------------------------------------------------------------------------------------------------------
| 34  |  BARRA--34   |  1  |   0.984   | -136.82  |  0.000   | 389.996  | 113.469  |  50.003  |  13.556  |
----------------------------------------------------------------------------------------------------------
| 35  |  BARRA--35   |  0  |   0.974   | -137.56  |  0.000   |  0.000   |  63.466  |  17.309  |  0.000   |
----------------------------------------------------------------------------------------------------------
| 36  |  BARRA--36   |  1  |   0.980   | -137.68  |  0.000   |  95.182  |  59.619  |  32.694  |  0.000   |
----------------------------------------------------------------------------------------------------------
| 37  |  BARRA--37   |  0  |   0.961   | -135.14  |  0.000   |  0.000   |  0.000   |  0.000   | -23.078  |
----------------------------------------------------------------------------------------------------------
| 38  |  BARRA--38   |  0  |   0.798   | -124.03  |  -0.000  |  -0.000  |  0.000   |  0.000   |  0.000   |
----------------------------------------------------------------------------------------------------------
| 39  |  BARRA--39   |  0  |   0.952   | -136.38  |  0.000   |  0.000   |  51.926  |  21.155  |  0.000   |
----------------------------------------------------------------------------------------------------------
| 40  |  BARRA--40   |  1  |   0.970   | -135.36  | -46.000  | 126.900  |  38.464  |  44.234  |  0.000   |
----------------------------------------------------------------------------------------------------------

|          BARRA           |         TENSAO       |        GERACAO      |         CARGA       |   SHUNT  |
| NUM |     NOME     |  T  |    MOD    |    ANG   |    MW    |   MVAr   |    MW    |   MVAr   |    MVAr  |
----------------------------------------------------------------------------------------------------------
| 41  |  BARRA--41   |  0  |   0.956   | -134.07  |  0.000   |  0.000   |  71.158  |  19.232  |  0.000   |
----------------------------------------------------------------------------------------------------------
| 42  |  BARRA--42   |  1  |   0.985   | -125.06  | -59.000  | 184.099  |  71.158  |  44.234  |  0.000   |
----------------------------------------------------------------------------------------------------------
| 43  |  BARRA--43   |  0  |   0.899   | -130.25  |  0.000   |  0.000   |  34.618  |  13.462  |  0.000   |
----------------------------------------------------------------------------------------------------------
| 44  |  BARRA--44   |  0  |   0.871   | -113.39  |  0.000   |  0.000   |  30.771  |  15.386  |  7.583   |
----------------------------------------------------------------------------------------------------------
| 45  |  BARRA--45   |  0  |   0.896   | -105.28  |  0.000   |  0.000   | 101.930  |  42.310  |  8.036   |
----------------------------------------------------------------------------------------------------------
| 46  |  BARRA--46   |  1  |   1.005   |  -98.40  |  19.000  | 268.864  |  53.850  |  19.232  |  10.100  |
----------------------------------------------------------------------------------------------------------
| 47  |  BARRA--47   |  0  |   0.810   |  -86.31  |  0.000   |  0.000   |  65.389  |  0.000   |  0.000   |
----------------------------------------------------------------------------------------------------------
| 48  |  BARRA--48   |  0  |   1.011   |  -92.04  |  0.000   |  0.000   |  38.464  |  21.155  |  15.341  |
----------------------------------------------------------------------------------------------------------
| 49  |  BARRA--49   |  1  |   1.025   |  -89.32  | 204.000  | 1327.319 | 167.319  |  57.696  |  0.000   |
----------------------------------------------------------------------------------------------------------
| 50  |  BARRA--50   |  0  |   0.992   |  -92.84  |  0.000   |  0.000   |  32.694  |  7.693   |  0.000   |
----------------------------------------------------------------------------------------------------------

|          BARRA           |         TENSAO       |        GERACAO      |         CARGA       |   SHUNT  |
| NUM |     NOME     |  T  |    MOD    |    ANG   |    MW    |   MVAr   |    MW    |   MVAr   |    MVAr  |
----------------------------------------------------------------------------------------------------------
| 51  |  BARRA--51   |  0  |   0.941   |  -97.50  |  0.000   |  0.000   |  32.694  |  15.386  |  0.000   |
----------------------------------------------------------------------------------------------------------
| 52  |  BARRA--52   |  0  |   0.926   |  -99.32  |  0.000   |  0.000   |  34.618  |  9.616   |  0.000   |
----------------------------------------------------------------------------------------------------------
| 53  |  BARRA--53   |  0  |   0.921   | -100.94  |  0.000   |  0.000   |  44.234  |  21.155  |  0.000   |
----------------------------------------------------------------------------------------------------------
| 54  |  BARRA--54   |  1  |   0.955   |  -98.91  |  48.000  |  95.877  | 217.322  |  61.542  |  0.000   |
----------------------------------------------------------------------------------------------------------
| 55  |  BARRA--55   |  1  |   0.952   |  -99.07  |  0.000   |  47.849  | 121.162  |  42.310  |  0.000   |
----------------------------------------------------------------------------------------------------------
| 56  |  BARRA--56   |  1  |   0.954   |  -98.88  |  0.000   |  84.791  | 161.549  |  34.618  |  0.000   |
----------------------------------------------------------------------------------------------------------
| 57  |  BARRA--57   |  0  |   0.962   |  -97.05  |  0.000   |  0.000   |  23.078  |  5.770   |  0.000   |
----------------------------------------------------------------------------------------------------------
| 58  |  BARRA--58   |  0  |   0.941   |  -98.67  |  0.000   |  0.000   |  23.078  |  5.770   |  0.000   |
----------------------------------------------------------------------------------------------------------
| 59  |  BARRA--59   |  1  |   0.985   |  -85.92  | 155.000  | 337.206  | 532.727  | 217.322  |  0.000   |
----------------------------------------------------------------------------------------------------------
| 60  |  BARRA--60   |  0  |   0.990   |  -75.30  |  0.000   |  0.000   | 150.010  |  5.770   |  0.000   |
----------------------------------------------------------------------------------------------------------

|          BARRA           |         TENSAO       |        GERACAO      |         CARGA       |   SHUNT  |
| NUM |     NOME     |  T  |    MOD    |    ANG   |    MW    |   MVAr   |    MW    |   MVAr   |    MVAr  |
----------------------------------------------------------------------------------------------------------
| 61  |  BARRA--61   |  1  |   0.995   |  -73.27  | 160.000  |  54.133  |  0.000   |  0.000   |  0.000   |
----------------------------------------------------------------------------------------------------------
| 62  |  BARRA--62   |  1  |   0.998   |  -74.82  |  0.000   |  46.182  | 148.087  |  26.925  |  0.000   |
----------------------------------------------------------------------------------------------------------
| 63  |  BARRA--63   |  0  |   0.939   |  -74.65  |  -0.000  |  0.000   |  0.000   |  0.000   |  0.000   |
----------------------------------------------------------------------------------------------------------
| 64  |  BARRA--64   |  0  |   0.958   |  -68.45  |  0.000   |  -0.000  |  0.000   |  0.000   |  0.000   |
----------------------------------------------------------------------------------------------------------
| 65  |  BARRA--65   |  1  |   1.005   |  -53.94  | 391.000  | 1784.277 |  0.000   |  0.000   |  0.000   |
----------------------------------------------------------------------------------------------------------
| 66  |  BARRA--66   |  1  |   1.050   |  -67.56  | 392.000  | 132.177  |  75.005  |  34.618  |  0.000   |
----------------------------------------------------------------------------------------------------------
| 67  |  BARRA--67   |  0  |   1.011   |  -72.39  |  0.000   |  0.000   |  53.850  |  13.462  |  0.000   |
----------------------------------------------------------------------------------------------------------
| 68  |  BARRA--68   |  0  |   0.951   |  -33.93  |  -0.000  |  0.000   |  0.000   |  0.000   |  0.000   |
----------------------------------------------------------------------------------------------------------
| 69  |  BARRA--69   |  2  |   1.035   |  +30.00  | 6052.787 | 3476.194 |  0.000   |  0.000   |  0.000   |
----------------------------------------------------------------------------------------------------------
| 70  |  BARRA--70   |  1  |   0.984   |  -40.85  |  0.000   | 932.213  | 126.931  |  38.464  |  0.000   |
----------------------------------------------------------------------------------------------------------

|          BARRA           |         TENSAO       |        GERACAO      |         CARGA       |   SHUNT  |
| NUM |     NOME     |  T  |    MOD    |    ANG   |    MW    |   MVAr   |    MW    |   MVAr   |    MVAr  |
----------------------------------------------------------------------------------------------------------
| 71  |  BARRA--71   |  0  |   0.967   |  -47.55  |  0.000   |  -0.000  |  0.000   |  0.000   |  0.000   |
----------------------------------------------------------------------------------------------------------
| 72  |  BARRA--72   |  1  |   0.980   |  -81.35  | -12.000  | 151.435  |  0.000   |  0.000   |  0.000   |
----------------------------------------------------------------------------------------------------------
| 73  |  BARRA--73   |  1  |   0.991   |  -47.99  |  -6.000  |  53.203  |  0.000   |  0.000   |  0.000   |
----------------------------------------------------------------------------------------------------------
| 74  |  BARRA--74   |  1  |   0.958   |  -39.68  |  0.000   | 295.776  | 130.778  |  51.926  |  11.013  |
----------------------------------------------------------------------------------------------------------
| 75  |  BARRA--75   |  0  |   0.863   |  -33.40  |  0.000   |  0.000   |  90.390  |  21.155  |  0.000   |
----------------------------------------------------------------------------------------------------------
| 76  |  BARRA--76   |  1  |   0.943   |  -45.13  |  0.000   | 178.145  | 130.778  |  69.235  |  0.000   |
----------------------------------------------------------------------------------------------------------
| 77  |  BARRA--77   |  1  |   1.006   |  -42.23  |  0.000   | 979.587  | 117.315  |  53.850  |  0.000   |
----------------------------------------------------------------------------------------------------------
| 78  |  BARRA--78   |  0  |   0.994   |  -43.61  |  0.000   |  0.000   | 136.547  |  50.003  |  0.000   |
----------------------------------------------------------------------------------------------------------
| 79  |  BARRA--79   |  0  |   0.996   |  -44.62  |  0.000   |  0.000   |  75.005  |  61.542  |  19.822  |
----------------------------------------------------------------------------------------------------------
| 80  |  BARRA--80   |  1  |   1.040   |  -44.83  | 477.000  | 433.969  | 250.016  |  50.003  |  0.000   |
----------------------------------------------------------------------------------------------------------

|          BARRA           |         TENSAO       |        GERACAO      |         CARGA       |   SHUNT  |
| NUM |     NOME     |  T  |    MOD    |    ANG   |    MW    |   MVAr   |    MW    |   MVAr   |    MVAr  |
----------------------------------------------------------------------------------------------------------
| 81  |  BARRA--81   |  0  |   0.956   |  -38.22  |  0.000   |  -0.000  |  0.000   |  0.000   |  0.000   |
----------------------------------------------------------------------------------------------------------
| 82  |  BARRA--82   |  0  |   0.937   |  -56.67  |  0.000   |  0.000   | 103.853  |  51.926  |  17.566  |
----------------------------------------------------------------------------------------------------------
| 83  |  BARRA--83   |  0  |   0.944   |  -59.47  |  0.000   |  0.000   |  38.464  |  19.232  |  8.920   |
----------------------------------------------------------------------------------------------------------
| 84  |  BARRA--84   |  0  |   0.961   |  -62.73  |  0.000   |  0.000   |  21.155  |  13.462  |  0.000   |
----------------------------------------------------------------------------------------------------------
| 85  |  BARRA--85   |  1  |   0.985   |  -63.63  |  0.000   |  98.624  |  46.157  |  28.848  |  0.000   |
----------------------------------------------------------------------------------------------------------
| 86  |  BARRA--86   |  0  |   0.974   |  -66.37  |  0.000   |  0.000   |  40.387  |  19.232  |  0.000   |
----------------------------------------------------------------------------------------------------------
| 87  |  BARRA--87   |  1  |   1.015   |  -66.21  |  4.000   |  17.092  |  0.000   |  0.000   |  0.000   |
----------------------------------------------------------------------------------------------------------
| 88  |  BARRA--88   |  0  |   0.980   |  -63.42  |  0.000   |  0.000   |  92.314  |  19.232  |  0.000   |
----------------------------------------------------------------------------------------------------------
| 89  |  BARRA--89   |  1  |   1.005   |  -59.59  | 607.000  |  1.316   |  0.000   |  0.000   |  0.000   |
----------------------------------------------------------------------------------------------------------
| 90  |  BARRA--90   |  1  |   0.985   |  -68.20  | -85.000  | 125.022  | 150.010  |  80.774  |  0.000   |
----------------------------------------------------------------------------------------------------------

|          BARRA           |         TENSAO       |        GERACAO      |         CARGA       |   SHUNT  |
| NUM |     NOME     |  T  |    MOD    |    ANG   |    MW    |   MVAr   |    MW    |   MVAr   |    MVAr  |
----------------------------------------------------------------------------------------------------------
| 91  |  BARRA--91   |  1  |   0.980   |  -67.13  | -10.000  | -12.376  |  0.000   |  0.000   |  0.000   |
----------------------------------------------------------------------------------------------------------
| 92  |  BARRA--92   |  1  |   0.990   |  -64.98  |  0.000   |  61.640  | 125.008  |  19.232  |  0.000   |
----------------------------------------------------------------------------------------------------------
| 93  |  BARRA--93   |  0  |   0.965   |  -65.42  |  0.000   |  0.000   |  23.078  |  13.462  |  0.000   |
----------------------------------------------------------------------------------------------------------
| 94  |  BARRA--94   |  0  |   0.957   |  -64.92  |  0.000   |  0.000   |  57.696  |  30.771  |  0.000   |
----------------------------------------------------------------------------------------------------------
| 95  |  BARRA--95   |  0  |   0.928   |  -63.18  |  0.000   |  0.000   |  80.774  |  59.619  |  0.000   |
----------------------------------------------------------------------------------------------------------
| 96  |  BARRA--96   |  0  |   0.945   |  -58.71  |  0.000   |  0.000   |  73.082  |  28.848  |  0.000   |
----------------------------------------------------------------------------------------------------------
| 97  |  BARRA--97   |  0  |   0.974   |  -52.33  |  0.000   |  0.000   |  28.848  |  17.309  |  0.000   |
----------------------------------------------------------------------------------------------------------
| 98  |  BARRA--98   |  0  |   0.992   |  -56.08  |  0.000   |  0.000   |  65.389  |  15.386  |  0.000   |
----------------------------------------------------------------------------------------------------------
| 99  |  BARRA--99   |  1  |   1.010   |  -63.45  | -42.000  |  13.957  |  0.000   |  0.000   |  0.000   |
----------------------------------------------------------------------------------------------------------
| 100 |  BARRA-100   |  1  |   1.017   |  -68.76  | 252.000  | 260.044  |  71.158  |  34.618  |  0.000   |
----------------------------------------------------------------------------------------------------------

|          BARRA           |         TENSAO       |        GERACAO      |         CARGA       |   SHUNT  |
| NUM |     NOME     |  T  |    MOD    |    ANG   |    MW    |   MVAr   |    MW    |   MVAr   |    MVAr  |
----------------------------------------------------------------------------------------------------------
| 101 |  BARRA-101   |  0  |   0.977   |  -68.83  |  0.000   |  0.000   |  42.310  |  28.848  |  0.000   |
----------------------------------------------------------------------------------------------------------
| 102 |  BARRA-102   |  0  |   0.983   |  -66.44  |  0.000   |  0.000   |  9.616   |  5.770   |  0.000   |
----------------------------------------------------------------------------------------------------------
| 103 |  BARRA-103   |  1  |   1.010   |  -76.79  |  40.000  | 128.826  |  44.234  |  30.771  |  0.000   |
----------------------------------------------------------------------------------------------------------
| 104 |  BARRA-104   |  1  |   0.971   |  -81.75  |  0.000   |  45.597  |  73.082  |  48.080  |  0.000   |
----------------------------------------------------------------------------------------------------------
| 105 |  BARRA-105   |  1  |   0.965   |  -83.82  |  0.000   |  47.693  |  59.619  |  50.003  |  18.624  |
----------------------------------------------------------------------------------------------------------
| 106 |  BARRA-106   |  0  |   0.947   |  -84.00  |  0.000   |  0.000   |  82.698  |  30.771  |  0.000   |
----------------------------------------------------------------------------------------------------------
| 107 |  BARRA-107   |  1  |   0.952   |  -88.63  | -22.000  |  34.506  |  53.850  |  23.078  |  5.438   |
----------------------------------------------------------------------------------------------------------
| 108 |  BARRA-108   |  0  |   0.963   |  -86.05  |  0.000   |  0.000   |  3.846   |  1.923   |  0.000   |
----------------------------------------------------------------------------------------------------------
...